NOTE: Use default Python editor IDLE. Other editors (like visual studio code) may sometimes cause problems.
****************************
****************************
WindFileGenWithDifferentSeedNumberV15.py				(Date:20-Sep-2022)
	This code generates *.inp files for TurbSimV1.5 using "mako template" thing in python (with Abhinav M's help).
	Used to create *.inp files which inturn used as input for TurbSim simualtions.
****************************
****************************
WindFileGenWithDifferentSeedNumberV20.py				(Date:20-Sep-2022)
	This code generates *.inp files for TurbSimV2.0 using "mako template" thing in python (with Abhinav M's help).
	Used to create *.inp files which inturn used as input for TurbSim simualtions.
****************************
****************************
"Run_TurbsimV15.py" and "Run_TurbsimV20.py"				(Date:20-Sep-2022)
	Caution: 
		Copy TurbSim64.exe(for v15) or TurbSim_x64.exe (for V20) to the folder.
	Once the *.inp files are generated, this code runs the  to generate *.bts files.
	Run one of the above two files depending on the version of the TurbSim.
****************************
****************************