-------------------------------- Post processing codes --------------------------------------------------------
		Many different codes are developed for post processing, some are for post processing 
		OpenFAST results and some are for post processing the MATLAB model generated results.
---------------------------------------------------------------------------------------------------------------
PP01_ReportGen.m:
		This code generates report containing time and frequency domain results for motion and 
		forces. "PP01_PlotsAutomation.m" is needed for this purpose.
PP01_PlotsAutomation.m:
		This code is needed for generating plots.
---------------------------------------------------------------------------------------------------------------